LAMMPS (30 Jul 2016-ICMS)
# Bead-spring polymer simulation with small-molecule diffusion - lj
# 160-mers
# 25 chains
# FENE potential repulsive all sites, with interactive temperature

units lj

shell	       echo 1.0 > Tempfile.txt
shell	       echo 1.0 > Bondfile.txt

variable       myTempStr file Tempfile.txt
variable       myTemp equal v_myTempStr

variable       myBondStr file Bondfile.txt
variable       myBond equal v_myBondStr

neighbor	0.4 bin
neigh_modify	every 1 delay 5 check yes

atom_style 	molecular

comm_modify	cutoff 5.0

# soft potential for initial pushoff
pair_style	lj/cut 1.12246
pair_modify	shift yes
bond_style	harmonic

# filename of the data-file (or restart-file) to be used
#read_data	newdataNbead160.txt
read_restart	restartsoft1
  orthogonal box = (-8.37884 -8.37884 -8.37884) to (8.37884 8.37884 8.37884)
  4000 atoms
  3975 bonds

# pair coefficients
pair_coeff	* * 1.0 1.0
#pair_coeff	* * 10.0

bond_coeff	* 500.0 1.0

#special_bonds	lj 0.0 1.0 1.0

# set the timestep in the specified units
timestep	0.001

thermo_style	one

# set the parameters here
fix 1 all nve/limit 0.01
fix 3 all langevin v_myTemp 1.0 1.0 39253

thermo		100
run 10000
  1 neighbor list requests
  update every 1 steps, delay 5 steps, check yes
Step Temp E_pair E_mol TotEng Press
5000   0.98812801 0.0036090128    2.4713654    3.9567958  -0.78487424
Averages over the last 51 of 101 rows, steps 10000 to 15000:
Temp E_pair E_mol TotEng Press
1.00611 0.207789 0.499191 2.21577 0.358653
Loop time of 6.90117 on 4 procs for 10000 steps with 4000 atoms

unfix 1

fix 4 all nve

# set Interactive Molecular Dynamics

fix com all imd 5678 trate 5 unwrap on #fscale #10.0

reset_timestep 	0

# change the 8000 to change how often to save the positions of the atoms
#dump 		1 all custom 500 position_imd.lammpstrj id type xs ys zs ix iy iz

# how often to output thermodynamic data

# how often to outout restart files and their names
#restart       5000000 restartimd1 restartimd2

label          loop2here

# specifies the run length in timesteps
run            2000
Step Temp E_pair E_mol TotEng Press
0    1.0221818   0.21102677   0.48292681    2.2268429   0.37443801
Averages over the last 11 of 21 rows, steps 1000 to 2000:
Temp E_pair E_mol TotEng Press
0.999678 0.20778 0.495978 2.2029 0.362902
Loop time of 2.08392 on 4 procs for 2000 steps with 4000 atoms

shell          head -n 2 Temp.txt | tail -n 1 >> Tempfile.txt
shell          head -n 2 Bond.txt | tail -n 1 >> Bondfile.txt
next           myTempStr
next           myBondStr
jump           imdinput.txt loop2here

# specifies the run length in timesteps
run            2000
Step Temp E_pair E_mol TotEng Press
2000    1.0004506   0.20831328   0.50105695     2.209671   0.27926446
Averages over the last 11 of 21 rows, steps 3000 to 4000:
Temp E_pair E_mol TotEng Press
1.01181 0.211859 0.506424 2.23562 0.340587
Loop time of 2.11941 on 4 procs for 2000 steps with 4000 atoms

shell          head -n 2 Temp.txt | tail -n 1 >> Tempfile.txt
shell          head -n 2 Bond.txt | tail -n 1 >> Bondfile.txt
next           myTempStr
next           myBondStr
jump           imdinput.txt loop2here

# specifies the run length in timesteps
run            2000
Step Temp E_pair E_mol TotEng Press
4000   0.98959741   0.21309515   0.49311795    2.1902381   0.32071336
Averages over the last 11 of 21 rows, steps 5000 to 6000:
Temp E_pair E_mol TotEng Press
1.00651 0.208895 0.496439 2.21472 0.377453
Loop time of 2.12934 on 4 procs for 2000 steps with 4000 atoms
