LAMMPS (8 Aug 2014)
# Diblock Copolymer (PS-PEO) without Lithium ions
# Modified: YS 01/2015 from LMH 02/2010

###Initialization
units		lj
atom_style	molecular
read_data	input_diblock.lammps
  orthogonal box = (-11.1803 -11.1803 -16.6176) to (11.1803 11.1803 16.6176)
  reading atoms ...
  12000 atoms
  scanning bonds ...
  reading bonds ...
  11700 bonds
group		poly type 1 2
12000 atoms in group poly

###Force Calculation 1
bond_style	fene
bond_coeff	1 30.0 1.5 1.0 1.0
bond_coeff	2 30.0 1.5 1.0 1.0
special_bonds	fene                # special_bonds fene is same as lj 0.0 1.0 1.0 (Later lj or coulombic potential will be turned off for 1-2 interactions because fene potential already contains lj potential in it.)

pair_style      soft 1.12246        # pair_style soft is applied to make the infinity at r=0 soft.
pair_coeff      * * 0.0
variable        prefactor equal 50.0*elapsed/1000        # For 1000 steps, A is varied from 0 to 50 (push apart any overlapping atoms and fix nve/limit also can do this.)
fix             fix0 all adapt 1 pair soft a * * v_prefactor

neighbor	1.0 bin
neigh_modify	every 1 delay 0 check yes

compute		calcrg poly gyration/molecule

###Equilibration 1
fix             fix1 all nve

fix 	        fix2 all langevin 1.0 1.0 1.0 39253       # Fix langevin modifies forces to make thermostat. It needs fix nve to time integrate the modified forces.

thermo_style 	custom step temp vol press ke pe ebond eimp evdwl ecoul elong
thermo		100                                       # Step interval to be shown.
timestep	0.0115

compute		calccom poly com/molecule
dump		dump1 all custom 100 pushoff.lammpstrj id mol type xs ys zs ix iy iz

fix 		temp all temp/rescale 1 0.0 1.0 0.05 1.0
run		1000
Step Temp Volume Press KinEng PotEng E_bond E_impro E_vdwl E_coul E_long
0            0    16617.647   -2.0435761            0    19.750465    19.750465            0            0            0            0
Averages over the last 6 of 11 rows, steps 500 to 1000:
Temp Volume Press KinEng PotEng E_bond E_impro E_vdwl E_coul E_long
0.76704 16617.6 2.52827 1.15046 20.3457 20.0928 0 0.252955 0 0
Loop time of 2.6758 on 4 procs (4 MPI x 1 OpenMP) for 1000 steps with 12000 atoms

Pair  time (%) = 0.709811 (26.5271)
Bond  time (%) = 0.136422 (5.09839)
Neigh time (%) = 0.350549 (13.1007)
Comm  time (%) = 0.803336 (30.0223)
Outpt time (%) = 0.118513 (4.42906)
Other time (%) = 0.557165 (20.8224)

unfix           fix0
unfix		temp
undump		dump1

###Force calculation 2
pair_style 	lj/cut 1.122462         # Force between atoms on different polymers (1-3, 1-4 interactions, as well)
pair_modify	shift yes
pair_coeff      1 1 1.0 1.0
pair_coeff      1 2 6.1 1.0
pair_coeff      2 2 1.0 1.0

###Equilibration 2       #End setup of calculations to be done during equilibration
dump		dump2 all custom 10000 equilnpt.lammpstrj id mol type xs ys zs ix iy iz
dump_modify	dump2 append yes

restart		10000000 diblock.restart

fix 		temp all temp/rescale 1 0.0 1.0 0.05 1.0
run		1000         #this run is for the estimation of calculation time
Step Temp Volume Press KinEng PotEng E_bond E_impro E_vdwl E_coul E_long
1000   0.99333601    16617.647    2.2260473    1.4898798    20.350589    20.203584            0   0.14700558            0            0
Averages over the last 6 of 11 rows, steps 1500 to 2000:
Temp Volume Press KinEng PotEng E_bond E_impro E_vdwl E_coul E_long
0.764917 16617.6 2.1135 1.14728 20.2933 20.0911 0 0.202155 0 0
Loop time of 2.30475 on 4 procs (4 MPI x 1 OpenMP) for 1000 steps with 12000 atoms

Pair  time (%) = 0.409341 (17.7607)
Bond  time (%) = 0.134181 (5.82194)
Neigh time (%) = 0.332358 (14.4206)
Comm  time (%) = 0.774966 (33.6248)
Outpt time (%) = 0.0012306 (0.053394)
Other time (%) = 0.652673 (28.3186)

unfix		temp
unfix		fix1
fix             fix3 all nph x 5.0 5.0 10.0 y 5.0 5.0 10.0 z 5.0 5.0 10.0 couple xy

run		99000
Step Temp Volume Press KinEng PotEng E_bond E_impro E_vdwl E_coul E_long
2000   0.98503869    16617.647    2.5585661    1.4774349    20.466905    20.201004            0   0.26590091            0            0
Averages over the last 28 of 56 rows, steps 4800 to 7500:
Temp Volume Press KinEng PotEng E_bond E_impro E_vdwl E_coul E_long
1.00048 14328.6 5.00867 1.50059 20.656 20.2091 0 0.446932 0 0
